Version 4.1
SHEET 1 880 680
WIRE 128 16 96 16
WIRE 224 16 128 16
WIRE 384 16 288 16
WIRE 416 16 384 16
WIRE 96 64 96 16
WIRE 416 64 416 16
WIRE 96 192 96 144
WIRE 144 192 96 192
WIRE 416 192 416 144
WIRE 416 192 144 192
FLAG 144 192 0
FLAG 128 16 in
FLAG 384 16 out
SYMBOL voltage 96 48 R0
SYMATTR InstName V
SYMATTR Value SINE(0 10 50)
SYMBOL res 400 48 R0
SYMATTR InstName RL
SYMATTR Value 1k
SYMBOL diode 224 32 R270
WINDOW 0 32 32 VTop 2
WINDOW 3 0 32 VBottom 2
SYMATTR InstName D
SYMATTR Value 1N4148
TEXT 312 208 Left 2 !.tran 0.1
