Version 4.1
SHEET 1 880 680
WIRE 32 -64 -128 -64
WIRE 192 -64 32 -64
WIRE -128 -32 -128 -64
WIRE 32 -32 32 -64
WIRE 192 -32 192 -64
WIRE 192 96 192 48
WIRE 272 96 192 96
WIRE 416 96 336 96
WIRE 192 128 192 96
WIRE 416 128 416 96
WIRE -80 176 -128 176
WIRE 32 176 32 48
WIRE 32 176 -16 176
WIRE 128 176 32 176
WIRE -128 208 -128 176
WIRE 192 256 192 224
WIRE 272 256 192 256
WIRE 416 256 416 208
WIRE 416 256 336 256
WIRE 32 304 32 176
WIRE 192 304 192 256
WIRE 32 416 32 384
WIRE 192 416 32 416
WIRE 192 416 192 384
WIRE 416 416 416 256
WIRE 416 416 192 416
FLAG -128 48 0
FLAG 192 416 0
FLAG -128 288 0
FLAG -128 176 in
FLAG 416 96 out
SYMBOL npn 128 128 R0
SYMATTR InstName Q1
SYMATTR Value 2N3904
SYMBOL cap 336 80 R90
WINDOW 0 0 32 VBottom 2
WINDOW 3 32 32 VTop 2
SYMATTR InstName C2
SYMATTR Value 10µ
SYMBOL voltage -128 -48 R0
SYMATTR InstName V1
SYMATTR Value 20
SYMBOL res 176 -48 R0
SYMATTR InstName R2
SYMATTR Value 10k
SYMBOL res 176 288 R0
SYMATTR InstName R4
SYMATTR Value 2k
SYMBOL res 16 288 R0
SYMATTR InstName R3
SYMATTR Value 15k
SYMBOL res 16 -48 R0
SYMATTR InstName R1
SYMATTR Value 85k
SYMBOL res 400 112 R0
SYMATTR InstName R5
SYMATTR Value 50k
SYMBOL cap 336 240 R90
WINDOW 0 0 32 VBottom 2
WINDOW 3 32 32 VTop 2
SYMATTR InstName C3
SYMATTR Value 10µ
SYMBOL cap -16 160 R90
WINDOW 0 0 32 VBottom 2
WINDOW 3 32 32 VTop 2
SYMATTR InstName C1
SYMATTR Value 10µ
SYMBOL voltage -128 192 R0
WINDOW 123 24 124 Left 2
WINDOW 39 0 0 Left 0
SYMATTR Value2 AC 1
SYMATTR InstName V2
SYMATTR Value SINE(0 10m 1k)
TEXT -128 400 Left 2 !.tran 10m
